Circuit: * C:\Users\Admin\Desktop\Senior\FYP\2 biweekly\15_240416 Improve\Matching network\Matching_network_series_L_parallel_C.asc

Direct Newton iteration for .op point succeeded.
Ignoring empty pin current: Ix(u1:1)
Ignoring empty pin current: Ix(u2:1)

Date: Sat Apr 20 02:52:54 2024
Total elapsed time: 0.050 seconds.

tnom = 27
temp = 27
method = trap
totiter = 9
traniter = 0
tranpoints = 0
accept = 0
rejected = 0
matrix size = 26
fillins = 4
solver = Normal
Avg thread counts: 16.0/0.0/16.0/16.0
Matrix Compiler1:      88 opcodes
Matrix Compiler2: 2.02 KB object code size
